Version 4
SHEET 1 1408 688
WIRE -1648 -1904 -1664 -1904
WIRE -1520 -1904 -1536 -1904
WIRE -1392 -1904 -1408 -1904
WIRE -1664 -1888 -1664 -1904
WIRE -1536 -1888 -1536 -1904
WIRE -1408 -1888 -1408 -1904
WIRE -704 -1888 -736 -1888
WIRE -672 -1888 -704 -1888
WIRE -560 -1888 -592 -1888
WIRE -528 -1888 -560 -1888
WIRE -416 -1888 -448 -1888
WIRE -384 -1888 -416 -1888
WIRE -272 -1888 -304 -1888
WIRE -240 -1888 -272 -1888
WIRE -96 -1888 -160 -1888
WIRE -80 -1888 -96 -1888
WIRE -1664 -1792 -1664 -1808
WIRE -1536 -1792 -1536 -1808
WIRE -1408 -1792 -1408 -1808
WIRE 336 -1392 176 -1392
WIRE 176 -1312 176 -1392
WIRE 224 -1312 176 -1312
WIRE 336 -1296 336 -1392
WIRE 336 -1296 288 -1296
WIRE 592 -1296 336 -1296
WIRE 624 -1296 592 -1296
WIRE -368 -1280 -544 -1280
WIRE -48 -1280 -208 -1280
WIRE 32 -1280 -48 -1280
WIRE 176 -1280 112 -1280
WIRE 224 -1280 176 -1280
WIRE 176 -1248 176 -1280
WIRE -464 -1232 -480 -1232
WIRE -368 -1232 -464 -1232
WIRE -144 -1232 -192 -1232
WIRE 176 -1136 176 -1168
WIRE -544 -1120 -544 -1280
WIRE -144 -1120 -144 -1232
WIRE -144 -1120 -544 -1120
WIRE -2496 -928 -2512 -928
WIRE -2336 -928 -2496 -928
WIRE 336 -816 176 -816
WIRE -2496 -768 -2512 -768
WIRE -2336 -768 -2496 -768
WIRE 176 -736 176 -816
WIRE 224 -736 176 -736
WIRE 336 -720 336 -816
WIRE 336 -720 288 -720
WIRE 592 -720 336 -720
WIRE 624 -720 592 -720
WIRE -368 -704 -544 -704
WIRE -48 -704 -208 -704
WIRE 32 -704 -48 -704
WIRE 176 -704 112 -704
WIRE 224 -704 176 -704
WIRE 176 -672 176 -704
WIRE -368 -656 -416 -656
WIRE -144 -656 -192 -656
WIRE -2496 -592 -2512 -592
WIRE -2336 -592 -2496 -592
WIRE -2080 -592 -2336 -592
WIRE -2048 -592 -2080 -592
WIRE 176 -560 176 -592
WIRE -544 -544 -544 -704
WIRE -144 -544 -144 -656
WIRE -144 -544 -544 -544
WIRE -2496 -464 -2512 -464
WIRE -2336 -464 -2336 -592
WIRE -2336 -464 -2496 -464
WIRE -2496 -384 -2512 -384
WIRE -2336 -384 -2336 -464
WIRE -2336 -384 -2496 -384
WIRE -768 -96 -1280 -96
WIRE 336 -48 176 -48
WIRE -1232 0 -1280 0
WIRE -768 32 -768 -96
WIRE -704 32 -768 32
WIRE 176 32 176 -48
WIRE 224 32 176 32
WIRE 336 48 336 -48
WIRE 336 48 288 48
WIRE 592 48 336 48
WIRE 624 48 592 48
WIRE -224 64 -512 64
WIRE 224 64 -224 64
WIRE -704 96 -944 96
WIRE -736 160 -752 160
WIRE -704 160 -736 160
WIRE -464 160 -512 160
WIRE -64 176 -192 176
WIRE 96 176 -64 176
WIRE -880 192 -944 192
WIRE -224 224 -224 64
WIRE -192 224 -192 176
WIRE -64 224 -64 176
WIRE 96 224 96 176
WIRE -240 256 -272 256
WIRE -272 336 -272 256
WIRE -208 336 -208 288
WIRE -64 336 -64 288
WIRE -64 336 -208 336
WIRE 96 336 96 304
FLAG -1536 -1792 0
FLAG -1408 -1792 0
FLAG -1536 -1904 V+
FLAG -1664 -1792 0
FLAG -1664 -1904 V-
FLAG 176 -1136 0
FLAG 592 -1296 MSB
FLAG 256 -1264 V-
FLAG 592 48 VAL
FLAG 256 -1328 V+
FLAG -1408 -1904 PULS
FLAG -176 256 V+
FLAG 592 -720 LSB
FLAG 256 -688 V-
FLAG 256 -752 V+
FLAG 176 -560 0
FLAG -272 336 0
FLAG 256 80 V-
FLAG 256 16 V+
FLAG -2496 -592 SET
FLAG -2496 -384 CLK
FLAG -2496 -464 PULS
FLAG -2496 -928 MSBx
FLAG -2496 -768 LSBx
FLAG 96 336 0
FLAG -96 -1888 V+
FLAG -736 -1888 0
FLAG -704 -1888 V1
FLAG -560 -1888 V2
FLAG -416 -1888 V3
FLAG -272 -1888 V4
FLAG -736 160 MSB
FLAG -1040 0 V+
FLAG -1376 -192 V+
FLAG -608 -32 V+
FLAG -672 272 V-
FLAG -1440 112 V-
FLAG -1104 304 V-
FLAG -544 272 0
FLAG -1312 112 0
FLAG -976 304 0
FLAG -1472 -128 V1
FLAG -1472 -64 V2
FLAG -1136 64 V3
FLAG -1136 128 V4
FLAG -1472 0 LSB
FLAG -1136 192 LSB
FLAG -1232 0 V+
FLAG -880 192 V+
FLAG -464 160 V+
FLAG -416 -656 SET0
FLAG -2080 -592 SET0
FLAG -48 -1280 MSBx
FLAG -48 -704 LSBx
FLAG -464 -1232 LSBx
SYMBOL voltage -1536 -1904 R0
SYMATTR InstName V+
SYMATTR Value 12
SYMBOL voltage -1408 -1904 R0
SYMATTR InstName V2
SYMATTR Value PULSE(0 1 0 0 0 0.1 0.2)
SYMBOL OpAmps/AD823 256 -1360 R0
SYMATTR InstName U2
SYMBOL voltage -1664 -1904 R0
SYMATTR InstName V-
SYMATTR Value -12
SYMBOL Res 160 -1264 R0
SYMATTR InstName R1
SYMATTR Value 10K
SYMBOL Res 16 -1264 R270
WINDOW 0 32 56 VTop 2
WINDOW 3 0 56 VBottom 2
SYMATTR InstName R2
SYMATTR Value 13
SYMBOL OpAmps/AD823 -144 256 R90
WINDOW 0 29 81 VRight 2
WINDOW 3 -20 102 VRight 2
SYMATTR InstName U8
SYMBOL LED -48 288 R180
WINDOW 0 24 64 Left 2
WINDOW 3 1 64 Right 2
SYMATTR InstName LED
SYMATTR Value QTLP690C
SYMBOL OpAmps/AD823 256 -784 R0
SYMATTR InstName U6
SYMBOL Res 160 -688 R0
SYMATTR InstName R5
SYMATTR Value 10K
SYMBOL Res 128 -720 R90
WINDOW 0 0 56 VBottom 2
WINDOW 3 32 56 VTop 2
SYMATTR InstName R11
SYMATTR Value 13
SYMBOL OpAmps/AD823 256 -16 R0
SYMATTR InstName U9
SYMBOL Res 80 208 R0
SYMATTR InstName R3
SYMATTR Value 1K
SYMBOL Res -144 -1904 R90
WINDOW 0 0 56 VBottom 2
WINDOW 3 32 56 VTop 2
SYMATTR InstName R4
SYMATTR Value 60K
SYMBOL Res -288 -1904 R90
WINDOW 0 0 56 VBottom 2
WINDOW 3 32 56 VTop 2
SYMATTR InstName R6
SYMATTR Value 10K
SYMBOL Res -432 -1904 R90
WINDOW 0 0 56 VBottom 2
WINDOW 3 32 56 VTop 2
SYMATTR InstName R7
SYMATTR Value 10K
SYMBOL Res -576 -1904 R90
WINDOW 0 0 56 VBottom 2
WINDOW 3 32 56 VTop 2
SYMATTR InstName R8
SYMATTR Value 10K
SYMBOL Switches/ADG1419 -1376 -48 R0
SYMATTR InstName U3
SYMBOL Switches/ADG1419 -1040 144 R0
SYMATTR InstName U4
SYMBOL Switches/ADG1419 -608 112 R0
SYMATTR InstName U10
SYMBOL Digital/dflop -288 -752 R0
SYMATTR InstName A1
SYMBOL Digital/dflop -288 -1328 R0
SYMATTR InstName A2
TEXT -1920 -1784 Left 2 !.tran 1s
